   10

C      -0.402393    0.117177    0.000001
H      -0.655279   -0.347498    0.966334
H      -0.655287   -0.347499   -0.966335
N       0.770266    0.852422   -0.000001
H       0.923948    1.276539   -1.193146
H       0.923961    1.276551    1.193144
C      -2.025001    1.168883   -0.000001
O      -1.115110    2.274544    0.000000
O      -3.232745    1.269237   -0.000000
H      -2.129599    0.021585   -0.000000
